132
Lattice="8.470340176415137 0.0 0.0 0.0 9.780706361961961 0.0 0.0 0.0 30.377539132116066" Properties=species:S:1:pos:R:3:tags:I:1:initial_magmoms:R:1:momenta:R:3:forces:R:3 energy=-505.25352429302103 pbc="T T F"
Pt       1.47474087       1.65107283       6.00000000        1       0.00000000       0.00000000       0.00000000       0.00000000       0.00000000       0.00000000       0.00000000
Pt       4.29818759       1.65107283       6.00000000        1       0.00000000       0.00000000       0.00000000       0.00000000       0.00000000       0.00000000       0.00000000
Pt       7.12163432       1.65107283       6.00000000        1       0.00000000       0.00000000       0.00000000       0.00000000       0.00000000       0.00000000       0.00000000
Pt       0.06301751       4.09624942       6.00000000        1       0.00000000       0.00000000       0.00000000       0.00000000       0.00000000       0.00000000       0.00000000
Pt       2.88646423       4.09624942       6.00000000        1       0.00000000       0.00000000       0.00000000       0.00000000       0.00000000       0.00000000       0.00000000
Pt       5.70991096       4.09624942       6.00000000        1       0.00000000       0.00000000       0.00000000       0.00000000       0.00000000       0.00000000       0.00000000
Pt       1.47474087       6.54142601       6.00000000        1       0.00000000       0.00000000       0.00000000       0.00000000       0.00000000       0.00000000       0.00000000
Pt       4.29818759       6.54142601       6.00000000        1       0.00000000       0.00000000       0.00000000       0.00000000       0.00000000       0.00000000       0.00000000
Pt       7.12163432       6.54142601       6.00000000        1       0.00000000       0.00000000       0.00000000       0.00000000       0.00000000       0.00000000       0.00000000
Pt       0.06301751       8.98660260       6.00000000        1       0.00000000       0.00000000       0.00000000       0.00000000       0.00000000       0.00000000       0.00000000
Pt       2.88646423       8.98660260       6.00000000        1       0.00000000       0.00000000       0.00000000       0.00000000       0.00000000       0.00000000       0.00000000
Pt       5.70991096       8.98660260       6.00000000        1       0.00000000       0.00000000       0.00000000       0.00000000       0.00000000       0.00000000       0.00000000
Pt       0.06301751       2.46613169       8.30533460        1       0.00000000       0.00000000       0.00000000       0.00000000       0.00000000       0.00000000       0.00000000
Pt       2.88646423       2.46613169       8.30533460        1       0.00000000       0.00000000       0.00000000       0.00000000       0.00000000       0.00000000       0.00000000
Pt       5.70991096       2.46613169       8.30533460        1       0.00000000       0.00000000       0.00000000       0.00000000       0.00000000       0.00000000       0.00000000
Pt       1.47474087       4.91130828       8.30533460        1       0.00000000       0.00000000       0.00000000       0.00000000       0.00000000       0.00000000       0.00000000
Pt       4.29818759       4.91130828       8.30533460        1       0.00000000       0.00000000       0.00000000       0.00000000       0.00000000       0.00000000       0.00000000
Pt       7.12163432       4.91130828       8.30533460        1       0.00000000       0.00000000       0.00000000       0.00000000       0.00000000       0.00000000       0.00000000
Pt       0.06301751       7.35648488       8.30533460        1       0.00000000       0.00000000       0.00000000       0.00000000       0.00000000       0.00000000       0.00000000
Pt       2.88646423       7.35648488       8.30533460        1       0.00000000       0.00000000       0.00000000       0.00000000       0.00000000       0.00000000       0.00000000
Pt       5.70991096       7.35648488       8.30533460        1       0.00000000       0.00000000       0.00000000       0.00000000       0.00000000       0.00000000       0.00000000
Pt       1.47474087       9.80166147       8.30533460        1       0.00000000       0.00000000       0.00000000       0.00000000       0.00000000       0.00000000       0.00000000
Pt       4.29818759       9.80166147       8.30533460        1       0.00000000       0.00000000       0.00000000       0.00000000       0.00000000       0.00000000       0.00000000
Pt       7.12163432       9.80166147       8.30533460        1       0.00000000       0.00000000       0.00000000       0.00000000       0.00000000       0.00000000       0.00000000
Pt       0.06301751       0.83601397      10.61066920        1       0.00000000       0.00000000       0.00000000       0.00000000       0.00000000       0.00000000       0.00000000
Pt       2.88646423       0.83601397      10.61066920        1       0.00000000       0.00000000       0.00000000       0.00000000       0.00000000       0.00000000       0.00000000
Pt       5.70991096       0.83601397      10.61066920        1       0.00000000       0.00000000       0.00000000       0.00000000       0.00000000       0.00000000       0.00000000
Pt       1.47474087       3.28119056      10.61066920        1       0.00000000       0.00000000       0.00000000       0.00000000       0.00000000       0.00000000       0.00000000
Pt       4.29818759       3.28119056      10.61066920        1       0.00000000       0.00000000       0.00000000       0.00000000       0.00000000       0.00000000       0.00000000
Pt       7.12163432       3.28119056      10.61066920        1       0.00000000       0.00000000       0.00000000       0.00000000       0.00000000       0.00000000       0.00000000
Pt       0.06301751       5.72636715      10.61066920        1       0.00000000       0.00000000       0.00000000       0.00000000       0.00000000       0.00000000       0.00000000
Pt       2.88646423       5.72636715      10.61066920        1       0.00000000       0.00000000       0.00000000       0.00000000       0.00000000       0.00000000       0.00000000
Pt       5.70991096       5.72636715      10.61066920        1       0.00000000       0.00000000       0.00000000       0.00000000       0.00000000       0.00000000       0.00000000
Pt       1.47474087       8.17154374      10.61066920        1       0.00000000       0.00000000       0.00000000       0.00000000       0.00000000       0.00000000       0.00000000
Pt       4.29818759       8.17154374      10.61066920        1       0.00000000       0.00000000       0.00000000       0.00000000       0.00000000       0.00000000       0.00000000
Pt       7.12163432       8.17154374      10.61066920        1       0.00000000       0.00000000       0.00000000       0.00000000       0.00000000       0.00000000       0.00000000
O        7.33330461       3.17646444      16.79042418        0       0.00000000      -0.02172121      -0.78193743       0.89733624       0.77519038       0.12183024      -0.17276892
H        6.69381936       2.50395633      16.43165750        0       0.00000000       0.05755366      -0.05911055      -0.17477963      -0.26928932      -0.13952905      -0.07937141
H       -0.46930527       3.26856589      16.03942374        0       0.00000000       0.04975127       0.34490294       0.01434911      -0.25410771      -0.02239263       0.20342742
O        8.83637317       2.80765877      19.43671170        0       0.00000000      -0.09567276      -0.47091532      -0.85769741      -0.44880339       0.54325348      -1.23387855
H        8.46212151       3.73326913      19.64248501        0       0.00000000      -0.11931631      -0.04338517      -0.11575152       0.01205275      -0.39676004       0.31973070
H        0.17511718       2.78969840      18.41936489        0       0.00000000      -0.01725077       0.00607195      -0.08915284       0.05522683      -0.08862942       0.89246847
O        7.89511148       7.96640361      20.78651241        0       0.00000000      -0.02862571       0.57615220       1.42568232      -0.48095727       0.90695425       0.01054008
H        0.09933181       8.28910379      21.45242800        0       0.00000000       0.02940675       0.02434893       0.15379983      -0.02495160      -0.03746829      -0.16500823
H        7.40073404       8.84602373      20.56302591        0       0.00000000       0.10049464       0.10709297      -0.01301754       0.45780422      -0.76645203       0.22854523
O        7.03592738       5.05018182      20.35612026        0       0.00000000       0.07596698       0.13015675       0.30470860      -0.37652193      -0.94091022      -0.69798759
H        7.53020772       5.77206388      20.79148031        0       0.00000000       0.06498312       0.07810221      -0.23652677       0.41876301       0.88770045      -0.07923302
H        6.69329858       5.41269297      19.47765941        0       0.00000000      -0.24213068      -0.11025185       0.15796197       0.03068977       0.16863696       0.32795794
O        3.05307219       8.80018926      18.29483629        0       0.00000000       0.20505130       0.12300597      -1.28996627      -0.58456544       0.09795102       0.70901586
H        2.31575093       8.08240832      18.30798159        0       0.00000000      -0.06221415      -0.11716125       0.06363390       0.30559502       0.08592061      -0.09455650
H        2.83230198       9.22080422      19.21998685        0       0.00000000      -0.10531061      -0.14387402       0.24969523       0.24444272       0.23334425      -0.73100632
O        7.46407327       9.32976918      17.62413662        0       0.00000000      -0.59196470      -0.50829414       0.33882226      -0.46905331       0.56312230       0.11385547
H        7.09423960       9.86253064      18.44104777        0       0.00000000       0.04673836       0.02040180      -0.12283728       0.46786002      -0.48433716      -0.78303888
H        6.61878980       9.00907004      17.13443243        0       0.00000000      -0.00846193       0.06659691       0.16698255       0.31372714       0.13453411       0.35209892
O        6.76331087       0.97102335      20.11681083        0       0.00000000       0.04485801      -0.56047649       0.66745411      -0.00363922       0.15743962      -0.25823045
H        7.44573045       1.76450713      19.99378076        0       0.00000000       0.10454698      -0.08476745      -0.14418974      -0.77723659      -0.66795159       0.01322133
H        5.83417297       1.36793696      19.93646224        0       0.00000000       0.22401153       0.16640176      -0.17833701       0.79839350       0.21272414       0.29629469
O        1.59789144       4.80078941      16.72942798        0       0.00000000      -0.16460149       1.40238463      -0.57924074      -0.47332645      -0.58286450       0.64063495
H        1.53516907       5.19346378      15.83987694        0       0.00000000       0.14128477      -0.03140885      -0.14570002       0.19326540       0.49346463      -0.96612926
H        1.23031358       5.54075954      17.28193725        0       0.00000000      -0.41373425      -0.23237619       0.14085245      -0.10009002       0.29525506       0.46603335
O        4.41024625       2.58037101      20.30668484        0       0.00000000       0.51427996      -0.54406809       0.39989066      -0.20719093      -0.04301945       0.46654210
H        4.17079859       2.97958223      21.20573913        0       0.00000000       0.06640158       0.09680776      -0.09537649       0.53051445       0.07468932      -0.34497354
O        4.31012506       4.73275955      14.39934840        0       0.00000000      -0.38049254       1.20939236       0.05017327       0.24765939      -0.18242904       0.21572897
H        4.76427862       3.86895867      14.21817096        0       0.00000000      -0.02730996       0.15223816       0.14148761       0.07345846      -0.20807272      -0.41498295
H        4.04066816       4.52476557      15.34242782        0       0.00000000      -0.01941880      -0.00690401      -0.01068550      -0.09102298       0.37920377       0.05377034
O        0.06521034       5.80113947      12.76134361        0       0.00000000      -0.12543566       0.71881332       0.05068751       0.04109389       0.69524618      -0.21629279
H        7.64301334       6.24162166      13.25826197        0       0.00000000      -0.04008184      -0.29018299       0.19780570       0.16804590      -0.51985765       0.00653107
H        0.07636250       4.82677423      13.05449274        0       0.00000000       0.05833752      -0.07731074      -0.01335370      -0.10016476      -0.36282130       0.19865404
O        3.68963419       3.41800590      17.71327874        0       0.00000000       0.31316425      -0.16960255       0.37306252       0.94957250      -0.33666600       0.34966354
H        4.43802520       4.11651827      17.62206320        0       0.00000000      -0.11864064       0.13547551      -0.35740173      -0.59381317      -0.13497795      -0.15151777
H        2.84781637       3.86533920      17.41491870        0       0.00000000       0.25335358       0.30202528      -0.00825459      -0.11968249       0.48570283      -0.10467190
O        5.69443536       5.42398918      17.56193334        0       0.00000000      -1.01790431      -0.31445155       0.44443361      -0.26850455       1.56273349      -0.01102455
H        5.46152957       6.37766181      17.14761725        0       0.00000000       0.00363719       0.11962403       0.28011685       0.54004874      -1.29297806       0.53419692
H        6.57391274       5.14986804      17.17723358        0       0.00000000       0.17461027       0.32581720       0.25472012      -0.16056117      -0.09665122      -0.26378731
O        0.08105828       3.34180019      13.84674893        0       0.00000000       0.12565397       0.03648975       0.01581180      -1.38706245      -0.36040222       0.13573207
H        7.95361729       2.52925007      13.64645241        0       0.00000000      -0.03744004      -0.12698435       0.18680515       0.05825886       0.52888856       0.19145157
H        0.94483354       2.87890778      13.89658576        0       0.00000000       0.04517961       0.09796174      -0.20125428       1.28641297      -0.47823327       0.12644199
O        0.75622049       7.20475110      18.33168691        0       0.00000000      -0.36897834       0.85574403       0.11272725      -0.40412207      -0.41034796       0.40143443
H        0.19599176       7.42953806      19.16657145        0       0.00000000      -0.10059143       0.03261165      -0.05408466       0.62636456      -0.32583554       0.09524343
H        8.73294610       7.85001000      17.75364661        0       0.00000000      -0.04986584       0.16341409      -0.17745235      -0.25072124       0.27461612      -0.41523676
O        2.49896710       1.63672466      13.94223711        0       0.00000000       0.35994753       0.16035481      -0.25195630      -0.13599363      -0.16397650       0.46700055
H        2.43467586       1.47639751      12.95889557        0       0.00000000       0.31914792      -0.22711937       0.04854132       0.21191738      -0.08294077      -0.38378765
H        2.13569658       0.76336224      14.33478740        0       0.00000000      -0.03324019      -0.01588400      -0.02891545       0.09926786       0.67286905       0.01321370
O        4.43986259       8.46456986      13.91372950        0       0.00000000      -0.07198193       0.39121086      -0.12417320       0.30985292       0.09632778       0.62898509
H        4.53466780       8.47257250      12.91303638        0       0.00000000      -0.03253228      -0.12226018      -0.04290608      -0.38027372      -0.16123320      -0.23002462
H        3.62911736       7.89985734      14.15684083        0       0.00000000      -0.06643915       0.02093757      -0.05850647       0.09610419      -0.17180408      -0.56190838
O        1.47104196       9.58951417      15.79130641        0       0.00000000       0.11948988      -0.58252443      -0.68658848       0.53047670      -0.34040843       0.24018570
H        2.04657447       9.59562021      16.63019943        0       0.00000000       0.09716126      -0.12026025      -0.03612272      -0.21284353      -0.09765157      -0.15060385
H        0.55046026       9.54773740      16.15849100        0       0.00000000      -0.04054750       0.20462400       0.18738212      -0.49007087       0.26924121       0.26194130
O        6.94596553       0.81374821      13.99944157        0       0.00000000      -0.87172833      -0.45652878      -0.55780028       0.53063709       0.15829551       0.03421538
H        6.08016280       0.83851084      14.48339486        0       0.00000000       0.09655872       0.18237725      -0.14140561      -0.16567439      -0.02541095       0.29907737
H        6.69459079       0.41827519      13.12733286        0       0.00000000      -0.05866415       0.00539080      -0.06170252      -0.04470306      -0.11871220      -0.44548681
O        6.67767138       6.50856903      14.22819535        0       0.00000000      -0.32856179      -0.57518860       0.46246781       0.32156690      -0.51157831       0.17977178
H        5.98902188       5.75183447      14.31725965        0       0.00000000       0.27708410       0.12601027       0.05847606      -0.06425606       0.56363894      -0.09585250
H        6.13508027       7.33485480      14.09479431        0       0.00000000       0.09794651      -0.03752646      -0.08764646      -0.54482035       0.12118809      -0.08147594
O        4.91023310       1.54515587      15.88223477        0       0.00000000      -0.13707379      -0.57769579      -0.03909947      -0.22780786      -0.05510256       0.09260293
H        4.25231556       1.74628666      15.16619258        0       0.00000000       0.30461893       0.02841782      -0.18376121      -0.24999075      -0.07378497      -0.65254802
H        3.01012455       1.24572583      20.54200376        0       0.00000000      -0.12287458      -0.09403522      -0.15701731      -0.41925901       0.11597512      -0.25160344
O        2.09617623       6.89748899      14.73008241        0       0.00000000       0.15659060      -0.00312862       0.38492849       0.45451720      -0.13823040      -0.22305875
H        1.78552995       6.74404845      13.79400635        0       0.00000000      -0.05673473       0.02948781      -0.01239333      -0.28473553      -0.02945504      -0.01681040
H        1.72606973       7.79361321      14.97452883        0       0.00000000      -0.04763140      -0.08311872      -0.13794780      -0.31905024       0.32017393       0.15537684
O        2.16912046       0.67662697      20.52609819        0       0.00000000       0.18716672      -0.52627175      -0.69972897       0.09574912      -0.22096722       0.08110441
H        1.49010415       1.28487503      20.09576250        0       0.00000000       0.17571550      -0.10298656       0.13510966       0.42502319       0.06092598       0.15855053
H        4.19834058       3.26718822      19.59867935        0       0.00000000       0.52899442       0.11877818       0.02110150      -0.33199812      -0.29579118       0.04383765
O        5.14504268       8.14973975      16.63278220        0       0.00000000       0.43043556      -0.27051802      -0.49723600       0.89277312      -0.71937253       1.63677074
H        4.80973779       8.36541854      15.75415693        0       0.00000000      -0.00072279      -0.08490562       0.15780946      -0.53885624       0.55218608      -1.09127793
H        4.49478363       8.49844879      17.33231815        0       0.00000000       0.13399630       0.09781347       0.13542958      -0.30502166      -0.08150461      -0.30233740
H        4.29019484       1.74152413      16.64768081        0       0.00000000       0.09954451      -0.11062046       0.04831891       0.34241230       0.29359234       0.41193168
O        0.41799789       0.76411950      23.31469480        1       0.00000000       0.00000000       0.00000000       0.00000000       0.00000000       0.00000000       0.00000000
H        0.99566199      -0.02095510      23.19010346        1       0.00000000       0.00000000       0.00000000       0.00000000       0.00000000       0.00000000       0.00000000
H        0.99069993       1.55297031      23.18846971        1       0.00000000       0.00000000       0.00000000       0.00000000       0.00000000       0.00000000       0.00000000
O        1.95292501       3.19991621      23.41261280        1       0.00000000       0.00000000       0.00000000       0.00000000       0.00000000       0.00000000       0.00000000
H        2.94813031       3.19481828      23.31408496        1       0.00000000       0.00000000       0.00000000       0.00000000       0.00000000       0.00000000       0.00000000
H        1.83068613       3.20527721      24.37753913        1       0.00000000       0.00000000       0.00000000       0.00000000       0.00000000       0.00000000       0.00000000
O        4.65577897       3.17845165      23.22256237        1       0.00000000       0.00000000       0.00000000       0.00000000       0.00000000       0.00000000       0.00000000
H        5.22688748       2.38919093      23.35197587        1       0.00000000       0.00000000       0.00000000       0.00000000       0.00000000       0.00000000       0.00000000
H        5.23281898       3.96378496      23.34846007        1       0.00000000       0.00000000       0.00000000       0.00000000       0.00000000       0.00000000       0.00000000
O        6.18394594       0.73853797      23.12765444        1       0.00000000       0.00000000       0.00000000       0.00000000       0.00000000       0.00000000       0.00000000
H        7.17879003       0.74696248      23.22521218        1       0.00000000       0.00000000       0.00000000       0.00000000       0.00000000       0.00000000       0.00000000
H        6.05972473       0.73684610      22.16316377        1       0.00000000       0.00000000       0.00000000       0.00000000       0.00000000       0.00000000       0.00000000
O        0.41802055       5.65437646      23.31469480        1       0.00000000       0.00000000       0.00000000       0.00000000       0.00000000       0.00000000       0.00000000
H        0.99562468       4.86934301      23.19010358        1       0.00000000       0.00000000       0.00000000       0.00000000       0.00000000       0.00000000       0.00000000
H        0.99061616       6.44326778      23.18847838        1       0.00000000       0.00000000       0.00000000       0.00000000       0.00000000       0.00000000       0.00000000
O        1.95291951       8.09025843      23.41261280        1       0.00000000       0.00000000       0.00000000       0.00000000       0.00000000       0.00000000       0.00000000
H        2.94812617       8.08516152      23.31408748        1       0.00000000       0.00000000       0.00000000       0.00000000       0.00000000       0.00000000       0.00000000
H        1.83068956       8.09562746      24.37753787        1       0.00000000       0.00000000       0.00000000       0.00000000       0.00000000       0.00000000       0.00000000
O        4.65576804       8.06878922      23.22256237        1       0.00000000       0.00000000       0.00000000       0.00000000       0.00000000       0.00000000       0.00000000
H        5.22688591       7.27954213      23.35198840        1       0.00000000       0.00000000       0.00000000       0.00000000       0.00000000       0.00000000       0.00000000
H        5.23281282       8.85413040      23.34846979        1       0.00000000       0.00000000       0.00000000       0.00000000       0.00000000       0.00000000       0.00000000
O        6.18394439       5.62883760      23.12765444        1       0.00000000       0.00000000       0.00000000       0.00000000       0.00000000       0.00000000       0.00000000
H        7.17876023       5.63723692      23.22521279        1       0.00000000       0.00000000       0.00000000       0.00000000       0.00000000       0.00000000       0.00000000
H        6.05971683       5.62718241      22.16315551        1       0.00000000       0.00000000       0.00000000       0.00000000       0.00000000       0.00000000       0.00000000
